Results/PF_SnapMode/Switch_Open/VOLTAGES_REPORT.Txt

SYMMETRICAL COMPONENT VOLTAGES BY BUS (for 3-phase buses)

Bus        Mag:   V1 (kV)    p.u.     V2 (kV)   %V2/V1    V0 (kV)    %V0/V1

sourcebus     6.351          1  3.104E-009  4.887E-008 4.131E-010 6.505E-009
bus1          6.351          1  3.103E-009  4.887E-008 4.131E-010 6.505E-009
bus2          6.351          1  3.103E-009  4.887E-008 4.131E-010 6.505E-009
bus3         0.2303     0.9974  1.193E-010  5.179E-008 4.453E-015 1.933E-012
bus4         0.2306     0.9986  1.194E-010  5.179E-008 2.386E-015 1.035E-012
bus5          0.206     0.8921  1.066E-010  5.175E-008 1.336E-013 6.484E-011
bus6         0.2177     0.9426  1.127E-010  5.177E-008 7.179E-014 3.298E-011
